NIA rename log
================================================================================
Year: 2019
Input file: /Users/yenarue/Downloads/ITM.89912(A)/연구 데이터/working/subset/nia_2019_subset.csv
Output file: /Users/yenarue/Downloads/ITM.89912(A)/연구 데이터/working/rename/nia_2019_renamed.csv
Encoding used: utf-8-sig
Requested rename mapping: Q33 -> it_org_any_raw, Q33A1 -> it_org_internal_raw, Q33A2 -> it_org_mixed_raw, Q33A3 -> it_org_outsource_raw, Q32 -> it_invest_share_raw, Q50 -> ai_use_raw, Q58A1 -> proc_efficiency_raw, Q58A2 -> proc_cost_raw, D_SIZE -> firm_size_raw, D_IND -> industry_raw, D_INDSIZE -> industry_size_raw, WT -> weight_raw, year -> year
Columns found: Q33, Q33A1, Q33A2, Q33A3, Q32, Q50, Q58A1, Q58A2, D_SIZE, D_IND, D_INDSIZE, WT, year
Columns missing: (none)
Row count: 13456
Final columns after rename: it_org_any_raw, it_org_internal_raw, it_org_mixed_raw, it_org_outsource_raw, it_invest_share_raw, ai_use_raw, proc_efficiency_raw, proc_cost_raw, firm_size_raw, industry_raw, industry_size_raw, weight_raw, year
--------------------------------------------------------------------------------
Year: 2020
Input file: /Users/yenarue/Downloads/ITM.89912(A)/연구 데이터/working/subset/nia_2020_subset.csv
Output file: /Users/yenarue/Downloads/ITM.89912(A)/연구 데이터/working/rename/nia_2020_renamed.csv
Encoding used: utf-8-sig
Requested rename mapping: Q41 -> it_org_any_raw, Q41A1 -> it_org_internal_raw, Q41A2 -> it_org_mixed_raw, Q41A3 -> it_org_outsource_raw, Q40 -> it_invest_share_raw, Q33 -> ai_use_raw, Q42A1 -> proc_improve_raw, Q42A3 -> decision_improve_raw, Q42A5 -> innov_outcome_raw, D_SIZE -> firm_size_raw, D_IND -> industry_raw, D_INDSIZE1 -> industry_size_raw, WT -> weight_raw, year -> year
Columns found: Q41, Q41A1, Q41A2, Q41A3, Q40, Q33, Q42A1, Q42A3, Q42A5, D_IND, D_INDSIZE1, WT, year
Columns missing: D_SIZE
Row count: 12099
Final columns after rename: it_org_any_raw, it_org_internal_raw, it_org_mixed_raw, it_org_outsource_raw, it_invest_share_raw, ai_use_raw, proc_improve_raw, decision_improve_raw, innov_outcome_raw, industry_raw, industry_size_raw, weight_raw, year
--------------------------------------------------------------------------------
Year: 2021
Input file: /Users/yenarue/Downloads/ITM.89912(A)/연구 데이터/working/subset/nia_2021_subset.csv
Output file: /Users/yenarue/Downloads/ITM.89912(A)/연구 데이터/working/rename/nia_2021_renamed.csv
Encoding used: utf-8-sig
Requested rename mapping: Q44 -> it_org_any_raw, Q44A1 -> it_org_internal_raw, Q44A2 -> it_org_mixed_raw, Q44A3 -> it_org_outsource_raw, Q43 -> it_invest_share_raw, REQ43 -> it_invest_share_cat_raw, Q36 -> ai_use_raw, Q45A1 -> proc_improve_raw, Q45A3 -> decision_improve_raw, Q45A5 -> innov_outcome_raw, D_SIZE -> firm_size_raw, D_IND -> industry_raw, D_INDSIZE -> industry_size_raw, RIM_WT -> weight_raw, year -> year
Columns found: Q44, Q44A1, Q44A2, Q44A3, Q43, REQ43, Q36, Q45A1, Q45A3, Q45A5, D_SIZE, D_IND, D_INDSIZE, RIM_WT, year
Columns missing: (none)
Row count: 11951
Final columns after rename: it_org_any_raw, it_org_internal_raw, it_org_mixed_raw, it_org_outsource_raw, it_invest_share_raw, it_invest_share_cat_raw, ai_use_raw, proc_improve_raw, decision_improve_raw, innov_outcome_raw, firm_size_raw, industry_raw, industry_size_raw, weight_raw, year
--------------------------------------------------------------------------------
Year: 2022
Input file: /Users/yenarue/Downloads/ITM.89912(A)/연구 데이터/working/subset/nia_2022_subset.csv
Output file: /Users/yenarue/Downloads/ITM.89912(A)/연구 데이터/working/rename/nia_2022_renamed.csv
Encoding used: utf-8-sig
Requested rename mapping: Q44 -> it_org_any_raw, Q44A1 -> it_org_internal_raw, Q44A2 -> it_org_mixed_raw, Q44A3 -> it_org_outsource_raw, Q43 -> it_invest_share_raw, REQ43 -> it_invest_share_cat_raw, Q36 -> ai_use_raw, Q45A1 -> proc_improve_raw, Q45A3 -> decision_improve_raw, Q45A5 -> innov_outcome_raw, D_SIZE -> firm_size_raw, D_IND -> industry_raw, D_INDSIZE -> industry_size_raw, RIM_WT -> weight_raw, year -> year
Columns found: Q44, Q44A1, Q44A2, Q44A3, Q43, REQ43, Q36, Q45A1, Q45A3, Q45A5, D_SIZE, D_IND, D_INDSIZE, RIM_WT, year
Columns missing: (none)
Row count: 12142
Final columns after rename: it_org_any_raw, it_org_internal_raw, it_org_mixed_raw, it_org_outsource_raw, it_invest_share_raw, it_invest_share_cat_raw, ai_use_raw, proc_improve_raw, decision_improve_raw, innov_outcome_raw, firm_size_raw, industry_raw, industry_size_raw, weight_raw, year
--------------------------------------------------------------------------------
Year: 2023
Input file: /Users/yenarue/Downloads/ITM.89912(A)/연구 데이터/working/subset/nia_2023_subset.csv
Output file: /Users/yenarue/Downloads/ITM.89912(A)/연구 데이터/working/rename/nia_2023_renamed.csv
Encoding used: utf-8-sig
Requested rename mapping: Q34 -> it_org_any_raw, Q34_1_1 -> it_org_internal_raw, Q34_1_2 -> it_org_mixed_raw, Q34_1_3 -> it_org_outsource_raw, Q33 -> it_invest_share_raw, REQ33 -> it_invest_share_cat_raw, Q28 -> ai_use_raw, Q35_1 -> proc_improve_raw, Q35_3 -> decision_improve_raw, Q35_5 -> innov_outcome_raw, D_SIZE -> firm_size_raw, D_IND -> industry_raw, D_INDSIZE -> industry_size_raw, RIM_WT -> weight_raw, year -> year
Columns found: Q34, Q34_1_1, Q34_1_2, Q34_1_3, Q33, REQ33, Q28, Q35_1, Q35_3, Q35_5, D_SIZE, D_IND, D_INDSIZE, RIM_WT, year
Columns missing: (none)
Row count: 12247
Final columns after rename: it_org_any_raw, it_org_internal_raw, it_org_mixed_raw, it_org_outsource_raw, it_invest_share_raw, it_invest_share_cat_raw, ai_use_raw, proc_improve_raw, decision_improve_raw, innov_outcome_raw, firm_size_raw, industry_raw, industry_size_raw, weight_raw, year
--------------------------------------------------------------------------------
Year: 2024
Input file: /Users/yenarue/Downloads/ITM.89912(A)/연구 데이터/working/subset/nia_2024_subset.csv
Output file: /Users/yenarue/Downloads/ITM.89912(A)/연구 데이터/working/rename/nia_2024_renamed.csv
Encoding used: utf-8-sig
Requested rename mapping: Q34 -> it_org_any_raw, Q34_1_1 -> it_org_internal_raw, Q34_1_2 -> it_org_mixed_raw, Q34_1_3 -> it_org_outsource_raw, Q33 -> it_invest_share_raw, REQ33 -> it_invest_share_cat_raw, Q28 -> ai_use_raw, Q35_1 -> proc_improve_raw, Q35_3 -> decision_improve_raw, Q35_5 -> innov_outcome_raw, D_SIZE -> firm_size_raw, D_IND -> industry_raw, D_INDSIZE -> industry_size_raw, RIM_WT -> weight_raw, year -> year
Columns found: Q34, Q34_1_1, Q34_1_2, Q34_1_3, Q33, Q28, Q35_1, Q35_3, Q35_5, D_SIZE, D_IND, D_INDSIZE, RIM_WT, year
Columns missing: REQ33
Row count: 12203
Final columns after rename: it_org_any_raw, it_org_internal_raw, it_org_mixed_raw, it_org_outsource_raw, it_invest_share_raw, ai_use_raw, proc_improve_raw, decision_improve_raw, innov_outcome_raw, firm_size_raw, industry_raw, industry_size_raw, weight_raw, year
--------------------------------------------------------------------------------
